12
Lattice="            2.016750            0.000000            0.000000            0.000000            3.306560            0.000000            0.000000            0.000000            3.469390" Properties=species:S:1:pos:R:3
H    -1.0032927273035    -2.4799200000000    -2.8965011642276
H    -1.0032927273035    -0.8266400000000    -2.3075838357724
H    -0.0000000000000    -1.6532800000000    -1.7346950000000
H     0.0000000000000     0.0000000000000     0.0000000000000
H    -0.0000000000000    -1.6532800000000     0.0000000000000
H    -0.0000000000000    -0.0000000000000    -1.7346950000000
H    -1.0134572726965    -2.4799200000000    -1.1618061642276
H    -1.0134572726965    -0.8266400000000    -0.5728888357724
O    -1.5271428657607    -0.8266400000000    -3.1520730424785
O    -1.5271428657607    -2.4799200000000    -2.0520119575215
O    -0.4896071342393    -2.4799200000000    -0.3173169575215
O    -0.4896071342393    -0.8266400000000    -1.4173780424785
